Circuit: * C:\Users\Dell\Desktop\Cuatri\TC\Filtro Final\Simulaciones\Draft1.asc

Early termination of direct N-R iteration.
Direct Newton iteration failed to find .op point.  (Use ".option noopiter" to skip.)
Starting Gmin stepping
Increasing initial diagonal Gmin to 100
Increasing initial diagonal Gmin to 1000
Gmin = 1000
Gmin = 107.374
Gmin = 11.5292
Gmin = 1.23794
vernier = 0.5
vernier = 0.25
vernier = 0.333333
Gmin = 0.843904
vernier = 0.444444
Gmin = 0.33396
vernier = 0.592592
vernier = 0.790123
Gmin = 0.0763995
vernier = 1
Gmin = 0.00932954
Gmin = 0.00100175
Gmin = 0.000107562
Gmin = 1.15494e-005
Gmin = 1.24011e-006
Gmin = 1.33156e-007
Gmin = 1.42975e-008
Gmin = 1.53518e-009
Gmin = 1.64839e-010
Gmin = 1.76994e-011
Gmin = 1.90046e-012
Gmin = 2.0406e-013
Gmin = 0
Gmin stepping succeeded in finding the operating point.

.step run=1
.step run=2
.step run=3
.step run=4
.step run=5
.step run=6
.step run=7
.step run=8
.step run=9
.step run=10
.step run=11
.step run=12
.step run=13
.step run=14
.step run=15
.step run=16
.step run=17
.step run=18
.step run=19
.step run=20
.step run=21
.step run=22
.step run=23
.step run=24
.step run=25
.step run=26
.step run=27
.step run=28
.step run=29
.step run=30
.step run=31
.step run=32
.step run=33
.step run=34
.step run=35
.step run=36
.step run=37
.step run=38
.step run=39
.step run=40
.step run=41
.step run=42
.step run=43
.step run=44
.step run=45
.step run=46
.step run=47
.step run=48
.step run=49
.step run=50
.step run=51
.step run=52
.step run=53
.step run=54
.step run=55
.step run=56
.step run=57
.step run=58
.step run=59
.step run=60
.step run=61
.step run=62
.step run=63
.step run=64
.step run=65
.step run=66
.step run=67
.step run=68
.step run=69
.step run=70
.step run=71
.step run=72
.step run=73
.step run=74
.step run=75
.step run=76
.step run=77
.step run=78
.step run=79
.step run=80
.step run=81
.step run=82
.step run=83
.step run=84
.step run=85
.step run=86
.step run=87
.step run=88
.step run=89
.step run=90
.step run=91
.step run=92
.step run=93
.step run=94
.step run=95
.step run=96
.step run=97
.step run=98
.step run=99
.step run=100

Date: Sat Nov 25 16:47:19 2017
Total elapsed time: 27.228 seconds.

tnom = 27
temp = 27
method = trap
totiter = 932
traniter = 0
tranpoints = 0
accept = 0
rejected = 0
matrix size = 42
fillins = 121
solver = Normal
Matrix Compiler1:     569 opcodes
Matrix Compiler2: 7.76 KB object code size  2.9/4.1/[2.1]

