Circuit: * C:\Users\Dell\Desktop\Cuatri\TC\Filtro Final\Simulaciones\Sedra LPN.asc

Direct Newton iteration for .op point succeeded.

Date: Fri Nov 24 15:29:42 2017
Total elapsed time: 0.080 seconds.

tnom = 27
temp = 27
method = trap
totiter = 18
traniter = 0
tranpoints = 0
accept = 0
rejected = 0
matrix size = 31
fillins = 46
solver = Normal
Matrix Compiler1:     212 opcodes
Matrix Compiler2: 3.41 KB object code size
