Circuit: * C:\Users\Marcelo\Documents\GitHub\InformesTC\TP7\Simulacion\Circuito6\Circuito6.asc

Direct Newton iteration for .op point succeeded.

Date: Sun Nov 25 14:59:50 2018
Total elapsed time: 0.092 seconds.

tnom = 27
temp = 27
method = trap
totiter = 18
traniter = 0
tranpoints = 0
accept = 0
rejected = 0
matrix size = 31
fillins = 46
solver = Normal
Matrix Compiler1:     210 opcodes
Matrix Compiler2: 3.34 KB object code size
