Circuit: * C:\Users\newtonis\InformesTC\TP7\Simulacion\KHN_test\Draft1.asc

Direct Newton iteration for .op point succeeded.

Date: Sat Nov 24 11:09:19 2018
Total elapsed time: 0.073 seconds.

tnom = 27
temp = 27
method = modified trap
totiter = 2324
traniter = 2306
tranpoints = 1154
accept = 1134
rejected = 20
matrix size = 29
fillins = 32
solver = Normal
Matrix Compiler1: 2.75 KB object code size  0.5/0.2/[0.2]
Matrix Compiler2: off  [0.2]/0.3/0.2

