Circuit: * C:\Users\joa-m\InformesTC\TP7\Estabilidad\Completo\FiltroHP_N10_MC.asc

WARNING: Less than two connections to node NC_01.  This node is used by R35.
Early termination of direct N-R iteration.
Direct Newton iteration failed to find .op point.  (Use ".option noopiter" to skip.)
Starting Gmin stepping
Gmin = 10
vernier = 0.5
vernier = 0.25
vernier = 0.125
vernier = 0.0625
Gmin = 6.10914
vernier = 0.0833333
vernier = 0.0416667
vernier = 0.0208333
Gmin = 5.50995
vernier = 0.0104167
vernier = 0.00520833
vernier = 0.00260417
vernier = 0.00130208
Gmin = 5.501
vernier = 0.000651042
vernier = 0.000488281
Gmin = 0
Gmin stepping failed

Starting source stepping with srcstepmethod=0
Source Step = 3.0303%
Source Step = 33.3333%
Source Step = 63.6364%
Source Step = 93.9394%
Source stepping succeeded in finding the operating point.


Date: Sun Nov 25 10:52:10 2018
Total elapsed time: 4.789 seconds.

tnom = 27
temp = 27
method = trap
totiter = 1757
traniter = 0
tranpoints = 0
accept = 0
rejected = 0
matrix size = 341
fillins = 4608
solver = Normal
Matrix Compiler1:   48963 opcodes
Matrix Compiler2: 110.82 KB object code size  31.8/19.8/[18.3]

