Circuit: * C:\Users\Marcelo\Documents\GitHub\InformesTC\TP7\Simulacion\Circuito5\Circuito5.asc

WARNING: Less than two connections to node -V.  This node is used by V3.
Direct Newton iteration for .op point succeeded.

Date: Thu Nov 22 01:18:06 2018
Total elapsed time: 0.045 seconds.

tnom = 27
temp = 27
method = trap
totiter = 24
traniter = 0
tranpoints = 0
accept = 0
rejected = 0
matrix size = 32
fillins = 60
solver = Normal
Matrix Compiler1:     261 opcodes
Matrix Compiler2: 3.58 KB object code size
