Circuit: * C:\Users\newtonis\InformesTC\TP7\Simulacion\Completo\Draft1.asc

Direct Newton iteration for .op point succeeded.

Date: Mon Dec 03 16:59:36 2018
Total elapsed time: 0.042 seconds.

tnom = 27
temp = 27
method = modified trap
totiter = 2713
traniter = 2710
tranpoints = 1337
accept = 1260
rejected = 77
matrix size = 6
fillins = 1
solver = Normal
Matrix Compiler1: 254 bytes object code size  0.1/0.1/[0.1]
Matrix Compiler2:      34 opcodes  0.0/[0.0]/0.1

